Test file to see whether it works.

New line.

