Test file to see whether it works.
Wow.
New line.
And a conflict should start here.
